<?xml version="1.0" encoding="UTF-8"?>
<osm version="0.6" generator="OpenStreetMap server" copyright="OpenStreetMap and contributors" attribution="http://www.openstreetmap.org/copyright" license="http://opendatacommons.org/licenses/odbl/1-0/">
  <node id="1422633033" version="1" changeset="9205233" lat="-27.6036969" lon="-48.5283988" user="Koyaani" uid="506085" visible="true" timestamp="2011-09-04T03:28:45Z"/>
  <node id="1422633060" version="2" changeset="11691683" lat="-27.6084654" lon="-48.533044" user="Koyaani" uid="506085" visible="true" timestamp="2012-05-24T17:23:52Z"/>
  <node id="1422946487" version="1" changeset="9208280" lat="-27.588245" lon="-48.523387" user="Koyaani" uid="506085" visible="true" timestamp="2011-09-04T12:16:27Z"/>
  <node id="1422946501" version="1" changeset="9208280" lat="-27.5878263" lon="-48.5238027" user="Koyaani" uid="506085" visible="true" timestamp="2011-09-04T12:16:27Z"/>
  <node id="1422946493" version="2" changeset="10157170" lat="-27.5885383" lon="-48.5228759" user="Prblanco" uid="438811" visible="true" timestamp="2011-12-19T16:55:25Z"/>
  <node id="1424636434" version="1" changeset="9222509" lat="-27.601571" lon="-48.5264783" user="Koyaani" uid="506085" visible="true" timestamp="2011-09-05T22:12:30Z"/>
  <node id="1424636472" version="1" changeset="9222509" lat="-27.6022775" lon="-48.5263829" user="Koyaani" uid="506085" visible="true" timestamp="2011-09-05T22:12:31Z"/>
  <node id="1420498905" version="3" changeset="10539094" lat="-27.6036655" lon="-48.5283333" user="Prblanco" uid="438811" visible="true" timestamp="2012-01-30T11:59:10Z"/>
  <node id="1424653181" version="1" changeset="9222509" lat="-27.6057826" lon="-48.546873" user="Koyaani" uid="506085" visible="true" timestamp="2011-09-05T22:43:10Z"/>
  <node id="865711028" version="5" changeset="7926849" lat="-27.6026589" lon="-48.5266199" user="gdonadel" uid="309321" visible="true" timestamp="2011-04-21T16:15:54Z"/>
  <node id="865711049" version="4" changeset="7558319" lat="-27.6044806" lon="-48.5295229" user="BrodocK" uid="18763" visible="true" timestamp="2011-03-14T17:01:04Z"/>
  <node id="1425446871" version="2" changeset="9259090" lat="-27.5999389" lon="-48.5206026" user="Koyaani" uid="506085" visible="true" timestamp="2011-09-10T01:58:55Z">
    <tag k="highway" v="crossing"/>
  </node>
  <node id="419484800" version="3" changeset="7554132" lat="-27.6133936" lon="-48.5456448" user="BrodocK" uid="18763" visible="true" timestamp="2011-03-14T09:16:40Z"/>
  <node id="419484801" version="3" changeset="7554132" lat="-27.6132034" lon="-48.5458851" user="BrodocK" uid="18763" visible="true" timestamp="2011-03-14T09:16:41Z"/>
  <node id="419484802" version="3" changeset="7554132" lat="-27.6130741" lon="-48.5461168" user="BrodocK" uid="18763" visible="true" timestamp="2011-03-14T09:16:42Z"/>
  <node id="419484803" version="4" changeset="7554132" lat="-27.6129972" lon="-48.5464023" user="BrodocK" uid="18763" visible="true" timestamp="2011-03-14T09:16:43Z"/>
  <node id="419484825" version="3" changeset="7554132" lat="-27.608564" lon="-48.5481768" user="BrodocK" uid="18763" visible="true" timestamp="2011-03-14T09:16:45Z"/>
  <node id="419484815" version="3" changeset="7554132" lat="-27.6117128" lon="-48.5500307" user="BrodocK" uid="18763" visible="true" timestamp="2011-03-14T09:16:45Z"/>
  <node id="419484816" version="3" changeset="7554132" lat="-27.6113477" lon="-48.5500221" user="BrodocK" uid="18763" visible="true" timestamp="2011-03-14T09:16:47Z"/>
  <node id="419484806" version="3" changeset="7554132" lat="-27.6121463" lon="-48.548254" user="BrodocK" uid="18763" visible="true" timestamp="2011-03-14T09:16:55Z"/>
  <node id="419484804" version="4" changeset="7554132" lat="-27.6129895" lon="-48.5467574" user="BrodocK" uid="18763" visible="true" timestamp="2011-03-14T09:17:04Z"/>
  <node id="419484805" version="3" changeset="7554132" lat="-27.612846" lon="-48.5470696" user="BrodocK" uid="18763" visible="true" timestamp="2011-03-14T09:17:06Z"/>
  <node id="419484824" version="3" changeset="7554132" lat="-27.6090508" lon="-48.5482884" user="BrodocK" uid="18763" visible="true" timestamp="2011-03-14T09:17:08Z"/>
  <node id="1122203868" version="4" changeset="11691683" lat="-27.6093208" lon="-48.5382568" user="Koyaani" uid="506085" visible="true" timestamp="2012-05-24T17:23:52Z"/>
  <node id="419484820" version="4" changeset="7554132" lat="-27.610759" lon="-48.5490406" user="BrodocK" uid="18763" visible="true" timestamp="2011-03-14T09:16:56Z"/>
  <node id="419484821" version="4" changeset="7554132" lat="-27.6106886" lon="-48.5488092" user="BrodocK" uid="18763" visible="true" timestamp="2011-03-14T09:16:57Z"/>
  <node id="419484842" version="5" changeset="10154788" lat="-27.6104461" lon="-48.5397223" user="Prblanco" uid="438811" visible="true" timestamp="2011-12-19T11:46:38Z"/>
  <node id="419484822" version="4" changeset="7554132" lat="-27.6104352" lon="-48.5485988" user="BrodocK" uid="18763" visible="true" timestamp="2011-03-14T09:17:07Z"/>
  <node id="419484823" version="4" changeset="7554132" lat="-27.6098142" lon="-48.5483205" user="BrodocK" uid="18763" visible="true" timestamp="2011-03-14T09:17:08Z"/>
  <node id="1428535889" version="1" changeset="9259090" lat="-27.6073786" lon="-48.5307713" user="Koyaani" uid="506085" visible="true" timestamp="2011-09-10T02:36:24Z"/>
  <node id="1428535911" version="1" changeset="9259090" lat="-27.6031447" lon="-48.5271759" user="Koyaani" uid="506085" visible="true" timestamp="2011-09-10T02:36:25Z"/>
  <node id="1428539446" version="1" changeset="9259090" lat="-27.6033696" lon="-48.5275812" user="Koyaani" uid="506085" visible="true" timestamp="2011-09-10T03:04:58Z"/>
  <node id="1428539451" version="1" changeset="9259090" lat="-27.6028986" lon="-48.5268902" user="Koyaani" uid="506085" visible="true" timestamp="2011-09-10T03:04:59Z"/>
  <node id="1428539457" version="1" changeset="9259090" lat="-27.6038064" lon="-48.5286664" user="Koyaani" uid="506085" visible="true" timestamp="2011-09-10T03:04:59Z"/>
  <node id="542607605" version="1" changeset="2969285" lat="-27.6016421" lon="-48.5264912" user="ricardo_padilha" uid="129321" visible="true" timestamp="2009-10-27T21:38:33Z"/>
  <node id="542607606" version="2" changeset="6506443" lat="-27.6018467" lon="-48.526493" user="ricardo_padilha" uid="129321" visible="true" timestamp="2010-12-01T18:20:00Z"/>
  <node id="542607607" version="2" changeset="6506443" lat="-27.6020762" lon="-48.5264407" user="ricardo_padilha" uid="129321" visible="true" timestamp="2010-12-01T18:20:08Z"/>
  <node id="553471387" version="3" changeset="7392202" lat="-27.590625" lon="-48.5430598" user="lucas9696" uid="232146" visible="true" timestamp="2011-02-25T17:04:14Z">
    <tag k="highway" v="crossing"/>
  </node>
  <node id="419484717" version="4" changeset="7392202" lat="-27.5873995" lon="-48.5430169" user="lucas9696" uid="232146" visible="true" timestamp="2011-02-25T17:05:06Z"/>
  <node id="553471407" version="3" changeset="7392202" lat="-27.5867377" lon="-48.5431714" user="lucas9696" uid="232146" visible="true" timestamp="2011-02-25T17:06:50Z">
    <tag k="highway" v="crossing"/>
  </node>
  <node id="1611714277" version="1" changeset="10539094" lat="-27.6032937" lon="-48.5274113" user="Prblanco" uid="438811" visible="true" timestamp="2012-01-30T11:58:57Z"/>
  <node id="1611714296" version="1" changeset="10539094" lat="-27.6043014" lon="-48.5294028" user="Prblanco" uid="438811" visible="true" timestamp="2012-01-30T11:58:58Z"/>
  <node id="1611714321" version="1" changeset="10539094" lat="-27.6032139" lon="-48.5272722" user="Prblanco" uid="438811" visible="true" timestamp="2012-01-30T11:58:59Z"/>
  <node id="1014474681" version="3" changeset="7447403" lat="-27.5736295" lon="-48.5356072" user="lucas9696" uid="232146" visible="true" timestamp="2011-03-03T16:59:36Z"/>
  <node id="1014474695" version="3" changeset="7447403" lat="-27.5741095" lon="-48.5342457" user="lucas9696" uid="232146" visible="true" timestamp="2011-03-03T16:59:38Z"/>
  <node id="1014474697" version="3" changeset="7447403" lat="-27.5740453" lon="-48.5345514" user="lucas9696" uid="232146" visible="true" timestamp="2011-03-03T16:59:38Z"/>
  <node id="1014457533" version="5" changeset="15242001" lat="-27.5786137" lon="-48.5261458" user="Prblanco" uid="438811" visible="true" timestamp="2013-03-04T03:26:08Z"/>
  <node id="541838351" version="3" changeset="6505702" lat="-27.5980158" lon="-48.5204991" user="ricardo_padilha" uid="129321" visible="true" timestamp="2010-12-01T16:45:19Z"/>
  <node id="541838356" version="3" changeset="6505702" lat="-27.5980446" lon="-48.5204856" user="ricardo_padilha" uid="129321" visible="true" timestamp="2010-12-01T16:45:22Z"/>
  <node id="541838384" version="3" changeset="6505702" lat="-27.5980482" lon="-48.5201331" user="ricardo_padilha" uid="129321" visible="true" timestamp="2010-12-01T16:45:27Z"/>
  <node id="541838393" version="3" changeset="6505702" lat="-27.5978826" lon="-48.5201294" user="ricardo_padilha" uid="129321" visible="true" timestamp="2010-12-01T16:45:28Z"/>
  <node id="541838077" version="2" changeset="6505702" lat="-27.5983682" lon="-48.5204696" user="ricardo_padilha" uid="129321" visible="true" timestamp="2010-12-01T16:45:37Z"/>
  <node id="541838333" version="3" changeset="6505702" lat="-27.5978571" lon="-48.5204694" user="ricardo_padilha" uid="129321" visible="true" timestamp="2010-12-01T16:45:38Z"/>
  <node id="541838099" version="2" changeset="6505702" lat="-27.5981967" lon="-48.520363" user="ricardo_padilha" uid="129321" visible="true" timestamp="2010-12-01T16:46:00Z"/>
  <node id="541838087" version="2" changeset="6505702" lat="-27.5982697" lon="-48.520424" user="ricardo_padilha" uid="129321" visible="true" timestamp="2010-12-01T16:46:01Z"/>
  <node id="541838255" version="3" changeset="6505702" lat="-27.5980196" lon="-48.5201188" user="ricardo_padilha" uid="129321" visible="true" timestamp="2010-12-01T16:46:07Z"/>
  <node id="541838306" version="3" changeset="6505702" lat="-27.597803" lon="-48.5202201" user="ricardo_padilha" uid="129321" visible="true" timestamp="2010-12-01T16:46:17Z"/>
  <node id="541838319" version="3" changeset="6505702" lat="-27.5977879" lon="-48.5203447" user="ricardo_padilha" uid="129321" visible="true" timestamp="2010-12-01T16:46:20Z"/>
  <node id="541838398" version="3" changeset="6505702" lat="-27.5978333" lon="-48.5201709" user="ricardo_padilha" uid="129321" visible="true" timestamp="2010-12-01T16:46:24Z"/>
  <node id="541838326" version="3" changeset="6505702" lat="-27.5978095" lon="-48.5204099" user="ricardo_padilha" uid="129321" visible="true" timestamp="2010-12-01T16:46:25Z"/>
  <node id="541838338" version="3" changeset="6505702" lat="-27.5979124" lon="-48.5205004" user="ricardo_padilha" uid="129321" visible="true" timestamp="2010-12-01T16:46:30Z"/>
  <node id="541838109" version="3" changeset="6505702" lat="-27.5981352" lon="-48.5202635" user="ricardo_padilha" uid="129321" visible="true" timestamp="2010-12-01T16:46:30Z"/>
  <node id="541838315" version="3" changeset="6505702" lat="-27.5977859" lon="-48.520287" user="ricardo_padilha" uid="129321" visible="true" timestamp="2010-12-01T16:46:35Z"/>
  <node id="541838379" version="3" changeset="6505702" lat="-27.598096" lon="-48.5201767" user="ricardo_padilha" uid="129321" visible="true" timestamp="2010-12-01T16:46:36Z"/>
  <node id="541838389" version="3" changeset="6505702" lat="-27.5979588" lon="-48.5201081" user="ricardo_padilha" uid="129321" visible="true" timestamp="2010-12-01T16:46:38Z"/>
  <node id="542607339" version="2" changeset="6505702" lat="-27.5979406" lon="-48.5207805" user="ricardo_padilha" uid="129321" visible="true" timestamp="2010-12-01T16:46:38Z"/>
  <node id="541838344" version="3" changeset="6505702" lat="-27.5979546" lon="-48.5205083" user="ricardo_padilha" uid="129321" visible="true" timestamp="2010-12-01T16:46:40Z"/>
  <node id="865711234" version="2" changeset="6506443" lat="-27.5972606" lon="-48.5204494" user="ricardo_padilha" uid="129321" visible="true" timestamp="2010-12-01T17:57:24Z"/>
  <node id="1014849514" version="1" changeset="6506443" lat="-27.6019086" lon="-48.5218486" user="ricardo_padilha" uid="129321" visible="true" timestamp="2010-12-01T18:19:56Z"/>
  <node id="1014849526" version="1" changeset="6506443" lat="-27.6017223" lon="-48.5217011" user="ricardo_padilha" uid="129321" visible="true" timestamp="2010-12-01T18:19:57Z"/>
  <node id="1014849533" version="1" changeset="6506443" lat="-27.6019463" lon="-48.5217925" user="ricardo_padilha" uid="129321" visible="true" timestamp="2010-12-01T18:19:57Z"/>
  <node id="1014849546" version="1" changeset="6506443" lat="-27.6018793" lon="-48.5216171" user="ricardo_padilha" uid="129321" visible="true" timestamp="2010-12-01T18:19:57Z"/>
  <node id="542396711" version="3" changeset="6506443" lat="-27.6017166" lon="-48.5217393" user="ricardo_padilha" uid="129321" visible="true" timestamp="2010-12-01T18:20:03Z"/>
  <node id="542396629" version="3" changeset="6506443" lat="-27.6019244" lon="-48.5218321" user="ricardo_padilha" uid="129321" visible="true" timestamp="2010-12-01T18:20:04Z"/>
  <node id="542395612" version="2" changeset="6506443" lat="-27.6015926" lon="-48.5253197" user="ricardo_padilha" uid="129321" visible="true" timestamp="2010-12-01T18:20:05Z"/>
  <node id="542396533" version="3" changeset="6506443" lat="-27.601844" lon="-48.5216081" user="ricardo_padilha" uid="129321" visible="true" timestamp="2010-12-01T18:20:05Z"/>
  <node id="542607437" version="4" changeset="6506443" lat="-27.6016696" lon="-48.5240631" user="ricardo_padilha" uid="129321" visible="true" timestamp="2010-12-01T18:20:06Z"/>
  <node id="542607447" version="3" changeset="6506443" lat="-27.6017893" lon="-48.5221621" user="ricardo_padilha" uid="129321" visible="true" timestamp="2010-12-01T18:20:08Z"/>
  <node id="542607422" version="4" changeset="6506443" lat="-27.6016613" lon="-48.5242181" user="ricardo_padilha" uid="129321" visible="true" timestamp="2010-12-01T18:20:08Z"/>
  <node id="542396615" version="3" changeset="6506443" lat="-27.6019533" lon="-48.5217643" user="ricardo_padilha" uid="129321" visible="true" timestamp="2010-12-01T18:20:08Z"/>
  <node id="542396587" version="3" changeset="6506443" lat="-27.601948" lon="-48.5216973" user="ricardo_padilha" uid="129321" visible="true" timestamp="2010-12-01T18:20:10Z"/>
  <node id="542395689" version="3" changeset="6506443" lat="-27.6022253" lon="-48.5260962" user="ricardo_padilha" uid="129321" visible="true" timestamp="2010-12-01T18:20:11Z"/>
  <node id="542396752" version="3" changeset="6506443" lat="-27.6017869" lon="-48.5216196" user="ricardo_padilha" uid="129321" visible="true" timestamp="2010-12-01T18:20:12Z"/>
  <node id="542396726" version="3" changeset="6506443" lat="-27.6017416" lon="-48.5216598" user="ricardo_padilha" uid="129321" visible="true" timestamp="2010-12-01T18:20:12Z"/>
  <node id="542395697" version="3" changeset="6506443" lat="-27.6018115" lon="-48.5218732" user="ricardo_padilha" uid="129321" visible="true" timestamp="2010-12-01T18:20:13Z"/>
  <node id="542396645" version="3" changeset="6506443" lat="-27.601872" lon="-48.5218703" user="ricardo_padilha" uid="129321" visible="true" timestamp="2010-12-01T18:20:15Z"/>
  <node id="542396561" version="3" changeset="6506443" lat="-27.6019146" lon="-48.5216414" user="ricardo_padilha" uid="129321" visible="true" timestamp="2010-12-01T18:20:16Z"/>
  <node id="542396662" version="3" changeset="6506443" lat="-27.6017703" lon="-48.5218547" user="ricardo_padilha" uid="129321" visible="true" timestamp="2010-12-01T18:20:18Z"/>
  <node id="542396682" version="3" changeset="6506443" lat="-27.6017295" lon="-48.5218031" user="ricardo_padilha" uid="129321" visible="true" timestamp="2010-12-01T18:20:21Z"/>
  <node id="1014876686" version="1" changeset="6506443" lat="-27.6003906" lon="-48.5208188" user="ricardo_padilha" uid="129321" visible="true" timestamp="2010-12-01T18:43:13Z"/>
  <node id="1014876691" version="1" changeset="6506443" lat="-27.6002157" lon="-48.5257481" user="ricardo_padilha" uid="129321" visible="true" timestamp="2010-12-01T18:43:13Z"/>
  <node id="542607340" version="2" changeset="6506443" lat="-27.5974824" lon="-48.5218729" user="ricardo_padilha" uid="129321" visible="true" timestamp="2010-12-01T18:43:14Z"/>
  <node id="542607587" version="2" changeset="6506443" lat="-27.5970921" lon="-48.5224157" user="ricardo_padilha" uid="129321" visible="true" timestamp="2010-12-01T18:43:14Z"/>
  <node id="541837891" version="6" changeset="6506443" lat="-27.6001438" lon="-48.5206173" user="ricardo_padilha" uid="129321" visible="true" timestamp="2010-12-01T18:43:14Z"/>
  <node id="542607586" version="2" changeset="6506443" lat="-27.5976896" lon="-48.5215339" user="ricardo_padilha" uid="129321" visible="true" timestamp="2010-12-01T18:43:14Z"/>
  <node id="542080326" version="3" changeset="6506443" lat="-27.6002973" lon="-48.5208057" user="ricardo_padilha" uid="129321" visible="true" timestamp="2010-12-01T18:43:15Z"/>
  <node id="542607603" version="2" changeset="6506443" lat="-27.6013586" lon="-48.5264249" user="ricardo_padilha" uid="129321" visible="true" timestamp="2010-12-01T18:43:15Z"/>
  <node id="541838136" version="4" changeset="6506443" lat="-27.5999905" lon="-48.5206059" user="ricardo_padilha" uid="129321" visible="true" timestamp="2010-12-01T18:43:15Z"/>
  <node id="542080334" version="3" changeset="6506443" lat="-27.6003362" lon="-48.5208192" user="ricardo_padilha" uid="129321" visible="true" timestamp="2010-12-01T18:43:15Z"/>
  <node id="541837870" version="4" changeset="6506443" lat="-27.600053" lon="-48.520612" user="ricardo_padilha" uid="129321" visible="true" timestamp="2010-12-01T18:43:15Z"/>
  <node id="542607591" version="3" changeset="6506443" lat="-27.5968835" lon="-48.5229999" user="ricardo_padilha" uid="129321" visible="true" timestamp="2010-12-01T18:43:16Z"/>
  <node id="541838129" version="4" changeset="6506443" lat="-27.5998632" lon="-48.5205977" user="ricardo_padilha" uid="129321" visible="true" timestamp="2010-12-01T18:43:16Z"/>
  <node id="542080382" version="3" changeset="6506443" lat="-27.6005226" lon="-48.5206497" user="ricardo_padilha" uid="129321" visible="true" timestamp="2010-12-01T18:43:16Z"/>
  <node id="542607592" version="2" changeset="6506443" lat="-27.5968927" lon="-48.5231695" user="ricardo_padilha" uid="129321" visible="true" timestamp="2010-12-01T18:43:17Z"/>
  <node id="542080426" version="3" changeset="6506443" lat="-27.6002485" lon="-48.5205231" user="ricardo_padilha" uid="129321" visible="true" timestamp="2010-12-01T18:43:18Z"/>
  <node id="542607598" version="3" changeset="11061679" lat="-27.5971072" lon="-48.5237304" user="Koyaani" uid="506085" visible="true" timestamp="2012-03-22T11:15:53Z"/>
  <node id="542080340" version="3" changeset="6506443" lat="-27.6004353" lon="-48.5208015" user="ricardo_padilha" uid="129321" visible="true" timestamp="2010-12-01T18:43:20Z"/>
  <node id="542080375" version="3" changeset="6506443" lat="-27.6005108" lon="-48.520702" user="ricardo_padilha" uid="129321" visible="true" timestamp="2010-12-01T18:43:22Z"/>
  <node id="542080320" version="3" changeset="6506443" lat="-27.6002481" lon="-48.5207657" user="ricardo_padilha" uid="129321" visible="true" timestamp="2010-12-01T18:43:23Z"/>
  <node id="542080419" version="3" changeset="6506443" lat="-27.6002916" lon="-48.5204869" user="ricardo_padilha" uid="129321" visible="true" timestamp="2010-12-01T18:43:23Z"/>
  <node id="542080432" version="3" changeset="6506443" lat="-27.6002228" lon="-48.5205642" user="ricardo_padilha" uid="129321" visible="true" timestamp="2010-12-01T18:43:23Z"/>
  <node id="542080388" version="3" changeset="6506443" lat="-27.600502" lon="-48.520564" user="ricardo_padilha" uid="129321" visible="true" timestamp="2010-12-01T18:43:23Z"/>
  <node id="542607600" version="3" changeset="6506443" lat="-27.599013" lon="-48.5249535" user="ricardo_padilha" uid="129321" visible="true" timestamp="2010-12-01T18:43:23Z">
    <tag k="highway" v="crossing"/>
  </node>
  <node id="542080412" version="3" changeset="6506443" lat="-27.6003462" lon="-48.5204687" user="ricardo_padilha" uid="129321" visible="true" timestamp="2010-12-01T18:43:24Z"/>
  <node id="542607601" version="2" changeset="6506443" lat="-27.6010902" lon="-48.5262884" user="ricardo_padilha" uid="129321" visible="true" timestamp="2010-12-01T18:43:24Z"/>
  <node id="542080368" version="3" changeset="6506443" lat="-27.6004894" lon="-48.5207486" user="ricardo_padilha" uid="129321" visible="true" timestamp="2010-12-01T18:43:24Z"/>
  <node id="542080261" version="5" changeset="6506443" lat="-27.6002109" lon="-48.520623" user="ricardo_padilha" uid="129321" visible="true" timestamp="2010-12-01T18:43:27Z"/>
  <node id="542607589" version="2" changeset="6506443" lat="-27.596913" lon="-48.5228051" user="ricardo_padilha" uid="129321" visible="true" timestamp="2010-12-01T18:43:29Z"/>
  <node id="542607602" version="3" changeset="6506443" lat="-27.6012301" lon="-48.5263632" user="ricardo_padilha" uid="129321" visible="true" timestamp="2010-12-01T18:43:29Z"/>
  <node id="542080395" version="3" changeset="6506443" lat="-27.6004701" lon="-48.520516" user="ricardo_padilha" uid="129321" visible="true" timestamp="2010-12-01T18:43:30Z"/>
  <node id="542607594" version="2" changeset="6506443" lat="-27.5969193" lon="-48.5233064" user="ricardo_padilha" uid="129321" visible="true" timestamp="2010-12-01T18:43:30Z"/>
  <node id="542607604" version="2" changeset="6506443" lat="-27.6014847" lon="-48.5264626" user="ricardo_padilha" uid="129321" visible="true" timestamp="2010-12-01T18:43:32Z"/>
  <node id="542607596" version="2" changeset="6506443" lat="-27.5969647" lon="-48.5234423" user="ricardo_padilha" uid="129321" visible="true" timestamp="2010-12-01T18:43:32Z"/>
  <node id="542607585" version="3" changeset="6506443" lat="-27.5977823" lon="-48.521326" user="ricardo_padilha" uid="129321" visible="true" timestamp="2010-12-01T18:43:33Z"/>
  <node id="542080408" version="3" changeset="6506443" lat="-27.6003739" lon="-48.5204683" user="ricardo_padilha" uid="129321" visible="true" timestamp="2010-12-01T18:43:34Z"/>
  <node id="542607584" version="2" changeset="6506443" lat="-27.5978465" lon="-48.5211505" user="ricardo_padilha" uid="129321" visible="true" timestamp="2010-12-01T18:43:34Z"/>
  <node id="542607588" version="2" changeset="6506443" lat="-27.5969863" lon="-48.5225908" user="ricardo_padilha" uid="129321" visible="true" timestamp="2010-12-01T18:43:34Z"/>
  <node id="542080306" version="3" changeset="6506443" lat="-27.6002072" lon="-48.5206695" user="ricardo_padilha" uid="129321" visible="true" timestamp="2010-12-01T18:43:36Z"/>
  <node id="542080401" version="3" changeset="6506443" lat="-27.6004188" lon="-48.5204796" user="ricardo_padilha" uid="129321" visible="true" timestamp="2010-12-01T18:43:38Z"/>
  <node id="542080313" version="3" changeset="6506443" lat="-27.6002227" lon="-48.520725" user="ricardo_padilha" uid="129321" visible="true" timestamp="2010-12-01T18:43:38Z"/>
  <node id="542607583" version="2" changeset="6506443" lat="-27.5979036" lon="-48.5209489" user="ricardo_padilha" uid="129321" visible="true" timestamp="2010-12-01T18:43:41Z"/>
  <node id="865711589" version="6" changeset="11001286" lat="-27.5753731" lon="-48.5420078" user="JakobNoBrasil" uid="612217" visible="true" timestamp="2012-03-16T18:58:45Z"/>
  <node id="972596394" version="6" changeset="11001286" lat="-27.5757101" lon="-48.5423979" user="JakobNoBrasil" uid="612217" visible="true" timestamp="2012-03-16T18:58:45Z"/>
  <node id="972596407" version="6" changeset="11001286" lat="-27.5763857" lon="-48.5429018" user="JakobNoBrasil" uid="612217" visible="true" timestamp="2012-03-16T18:58:45Z"/>
  <node id="865711139" version="5" changeset="15239152" lat="-27.5848974" lon="-48.5438628" user="Prblanco" uid="438811" visible="true" timestamp="2013-03-03T20:34:55Z">
    <tag k="highway" v="traffic_signals"/>
  </node>
  <node id="447351223" version="4" changeset="7392202" lat="-27.5997251" lon="-48.5532026" user="lucas9696" uid="232146" visible="true" timestamp="2011-02-25T17:03:57Z"/>
  <node id="553324514" version="4" changeset="7392202" lat="-27.597544" lon="-48.5540009" user="lucas9696" uid="232146" visible="true" timestamp="2011-02-25T17:05:00Z"/>
  <node id="419485155" version="5" changeset="7392202" lat="-27.5992202" lon="-48.5531924" user="lucas9696" uid="232146" visible="true" timestamp="2011-02-25T17:10:24Z"/>
  <node id="553324180" version="4" changeset="7392202" lat="-27.6001994" lon="-48.552087" user="lucas9696" uid="232146" visible="true" timestamp="2011-02-25T17:04:17Z"/>
  <node id="419484826" version="4" changeset="7554132" lat="-27.6083288" lon="-48.5480327" user="BrodocK" uid="18763" visible="true" timestamp="2011-03-14T09:16:47Z"/>
  <node id="1433190395" version="1" changeset="9304737" lat="-27.5889804" lon="-48.5225401" user="Koyaani" uid="506085" visible="true" timestamp="2011-09-15T04:24:59Z"/>
  <node id="1433190391" version="2" changeset="10157170" lat="-27.5884392" lon="-48.5230256" user="Prblanco" uid="438811" visible="true" timestamp="2011-12-19T16:55:25Z"/>
  <node id="1433191571" version="1" changeset="9304737" lat="-27.5868672" lon="-48.5245972" user="Koyaani" uid="506085" visible="true" timestamp="2011-09-15T04:36:20Z"/>
  <node id="1433191572" version="2" changeset="10157170" lat="-27.5872777" lon="-48.5242041" user="Prblanco" uid="438811" visible="true" timestamp="2011-12-19T16:55:27Z"/>
  <node id="865711047" version="4" changeset="10539094" lat="-27.6041483" lon="-48.5292617" user="Prblanco" uid="438811" visible="true" timestamp="2012-01-30T11:59:10Z"/>
  <node id="865711025" version="4" changeset="7558319" lat="-27.6025184" lon="-48.5264504" user="BrodocK" uid="18763" visible="true" timestamp="2011-03-14T17:01:07Z"/>
  <node id="865711046" version="3" changeset="7558319" lat="-27.604026" lon="-48.5291037" user="BrodocK" uid="18763" visible="true" timestamp="2011-03-14T17:01:08Z"/>
  <node id="865711284" version="2" changeset="8599488" lat="-27.591978" lon="-48.5216043" user="Prblanco" uid="438811" visible="true" timestamp="2011-07-01T13:23:20Z"/>
  <node id="865711264" version="2" changeset="8721347" lat="-27.5940019" lon="-48.5213469" user="Prblanco" uid="438811" visible="true" timestamp="2011-07-14T11:56:53Z"/>
  <node id="865711262" version="1" changeset="5523101" lat="-27.5944132" lon="-48.5212384" user="helbermg" uid="333249" visible="true" timestamp="2010-08-18T03:05:40Z"/>
  <node id="865711323" version="2" changeset="10157170" lat="-27.585052" lon="-48.5246818" user="Prblanco" uid="438811" visible="true" timestamp="2011-12-19T16:55:25Z"/>
  <node id="865711348" version="3" changeset="6503312" lat="-27.5808096" lon="-48.5266213" user="ricardo_padilha" uid="129321" visible="true" timestamp="2010-12-01T12:57:45Z"/>
  <node id="865711350" version="4" changeset="13915511" lat="-27.5804168" lon="-48.5264635" user="Rachmaninoff" uid="1010353" visible="true" timestamp="2012-11-18T09:29:05Z">
    <tag k="highway" v="crossing"/>
  </node>
  <node id="872980891" version="2" changeset="6503312" lat="-27.5828383" lon="-48.5260832" user="ricardo_padilha" uid="129321" visible="true" timestamp="2010-12-01T12:57:43Z"/>
  <node id="542607597" version="3" changeset="6581585" lat="-27.5970506" lon="-48.5236272" user="gdonadel" uid="309321" visible="true" timestamp="2010-12-08T01:11:53Z"/>
  <node id="865711249" version="3" changeset="13873630" lat="-27.5967841" lon="-48.5205665" user="Rachmaninoff" uid="1010353" visible="true" timestamp="2012-11-14T17:09:55Z">
    <tag k="highway" v="crossing"/>
  </node>
  <node id="865711250" version="2" changeset="6581708" lat="-27.5965717" lon="-48.5206201" user="gdonadel" uid="309321" visible="true" timestamp="2010-12-08T02:41:21Z"/>
  <node id="865711351" version="5" changeset="15242001" lat="-27.5797954" lon="-48.5262346" user="Prblanco" uid="438811" visible="true" timestamp="2013-03-04T03:26:08Z"/>
  <node id="1434259148" version="1" changeset="9316131" lat="-27.6120936" lon="-48.5488934" user="Prblanco" uid="438811" visible="true" timestamp="2011-09-16T13:16:39Z"/>
  <node id="1434259157" version="1" changeset="9316131" lat="-27.614877" lon="-48.5444581" user="Prblanco" uid="438811" visible="true" timestamp="2011-09-16T13:16:39Z"/>
  <node id="1434258961" version="1" changeset="9316131" lat="-27.5822358" lon="-48.5444933" user="Prblanco" uid="438811" visible="true" timestamp="2011-09-16T13:16:32Z"/>
  <node id="1434258962" version="1" changeset="9316131" lat="-27.5824108" lon="-48.5445742" user="Prblanco" uid="438811" visible="true" timestamp="2011-09-16T13:16:32Z"/>
  <node id="1434258964" version="1" changeset="9316131" lat="-27.6149694" lon="-48.5442813" user="Prblanco" uid="438811" visible="true" timestamp="2011-09-16T13:16:33Z"/>
  <node id="419484809" version="4" changeset="9316131" lat="-27.6121457" lon="-48.5489834" user="Prblanco" uid="438811" visible="true" timestamp="2011-09-16T13:16:43Z"/>
  <node id="419484814" version="4" changeset="9316131" lat="-27.6120806" lon="-48.5498952" user="Prblanco" uid="438811" visible="true" timestamp="2011-09-16T13:16:43Z"/>
  <node id="419484813" version="5" changeset="9316131" lat="-27.6123086" lon="-48.5497471" user="Prblanco" uid="438811" visible="true" timestamp="2011-09-16T13:16:43Z"/>
  <node id="419484811" version="4" changeset="9316131" lat="-27.6123835" lon="-48.5492869" user="Prblanco" uid="438811" visible="true" timestamp="2011-09-16T13:16:44Z"/>
  <node id="419484808" version="4" changeset="9316131" lat="-27.6120698" lon="-48.548787" user="Prblanco" uid="438811" visible="true" timestamp="2011-09-16T13:16:44Z"/>
  <node id="1153383903" version="5" changeset="9316131" lat="-27.6121042" lon="-48.548353" user="Prblanco" uid="438811" visible="true" timestamp="2011-09-16T13:16:44Z"/>